/*--------------------------------*- C++ -*----------------------------------*\
| =========                 |                                                 |
| \\      /  F ield         | OpenFOAM: The Open Source CFD Toolbox           |
|  \\    /   O peration     | Version:  2.1.1                                 |
|   \\  /    A nd           | Web:      www.OpenFOAM.org                      |
|    \\/     M anipulation  |                                                 |
\*---------------------------------------------------------------------------*/
FoamFile
{
    version     2.0;
    format      ascii;
    class       volVectorField;
    object      cellMotionU;
}
// * * * * * * * * * * * * * * * * * * * * * * * * * * * * * * * * * * * * * //

dimensions      [0 1 -1 0 0 0 0];

internalField   uniform (0 0 0);

boundaryField
{
    left
    {
        type            varyingAmplitudeCosVelocity;
        value           uniform (0 0 0);
        outOfBounds	error;
        fileName	"t-A";
        H               0.3;
        minZ            0.0;
        Hdirection      (0 0 1);
        omega0          0.623;
        phi0            0.0;
    }

    right
    {
        type            fixedValue;
        value           uniform (0 0 0);
    }

    top
    {
	type		slip;
    }
    
    bottom
    {
	type		slip;
    }
    
    frontAndBack
    {
	type		empty;
    }
}

// ************************************************************************* //
