/*--------------------------------*- C++ -*----------------------------------*\
| =========                 |                                                 |
| \\      /  F ield         | OpenFOAM: The Open Source CFD Toolbox           |
|  \\    /   O peration     | Version:  2.1.1                                 |
|   \\  /    A nd           | Web:      www.OpenFOAM.org                      |
|    \\/     M anipulation  |                                                 |
\*---------------------------------------------------------------------------*/
FoamFile
{
    version     2.0;
    format      ascii;
    class       volScalarField;
    object      p_rgh;
}
// * * * * * * * * * * * * * * * * * * * * * * * * * * * * * * * * * * * * * //

dimensions      [0 2 -2 0 0 0 0];

internalField   uniform 0;

boundaryField
{
    left
    {
        type            buoyantEqFluxPressure;
        rho             rhok;
        fluxEq          fluxEq;
        value		uniform 0;
    }

    right
    {
        type            buoyantEqFluxPressure;
        rho             rhok;
        fluxEq          fluxEq;
        value		uniform 0;
    }

    bottom
    {
        type            buoyantEqFluxPressure;
        rho             rhok;
        fluxEq          fluxEq;
        value		uniform 0;
    }
    
    top
    {
        type            buoyantEqFluxPressure;
        rho             rhok;
        fluxEq          fluxEq;
        value		uniform 0;
    }
    
    frontAndBack
    {
	type		empty;
    }
}

// ************************************************************************* //
