/*---------------------------------------------------------------------------*\
| =========                 |                                                 |
| \\      /  F ield         | OpenFOAM: The Open Source CFD Toolbox           |
|  \\    /   O peration     | Version:  1.6                                   |
|   \\  /    A nd           | Web:      http://www.openfoam.org               |
|    \\/     M anipulation  |                                                 |
\*---------------------------------------------------------------------------*/
FoamFile
{
    version         2.0;
    format          ascii;
    class           dictionary;
    object          cellProbeDict;
}

// * * * * * * * * * * * * * * * * * * * * * * * * * * * * * * * * * * * * * //

probe		true;

fileNamePrefix	fluid_;
fileNameExt	csv;
outFrequency	100;
grabMeshMotion true;

fieldsNames
(
    gradRhoTilde
    U
);

cellsCoords
(
    (0.256 5e-04 0.20)
    (0.282 5e-04 0.20)
    (0.292 5e-04 0.20)
    (0.292 5e-04 0.21)
    (0.282 5e-04 0.21)
);

// ************************************************************************* //
