/*--------------------------------*- C++ -*----------------------------------*\
| =========                 |                                                 |
| \\      /  F ield         | OpenFOAM: The Open Source CFD Toolbox           |
|  \\    /   O peration     | Version:  2.1.1                                 |
|   \\  /    A nd           | Web:      www.OpenFOAM.org                      |
|    \\/     M anipulation  |                                                 |
\*---------------------------------------------------------------------------*/
FoamFile
{
    version     2.0;
    format      ascii;
    class       dictionary;
    object      transportProperties;
}

// * * * * * * * * * * * * * * * * * * * * * * * * * * * * * * * * * * * * * //

transportModel Newtonian;

// Laminar viscosity
nu              nu [0 2 -1 0 0 0 0] 1e-06;

// Thermal expansion coefficient
beta            beta [0 0 0 0 0 0 0] -34.296e-3;

//- reference density
rho0		rho0 [1 -3 0 0 0 0 0] 1000.0;

//-
psi		psi  [0 -2 2 0 0 0 0] 4.5e-7;

// Reference temperature
SARef            SARef [0 0 0 0 0 0 0] 0.0;

// Salinity diffusion coefficient
DS		DS [0 2 -1 0 0 0 0] 1.0e-9;

salinityFVM     true;

correctSalinity true;

// Laminar Prandtl number
Pr              Pr [0 0 0 0 0 0 0] 0.9;

// Turbulent Prandtl number
Sct             Sct [0 0 0 0 0 0 0] 0.7;

// ************************************************************************* //
