/*--------------------------------*- C++ -*----------------------------------*\
| =========                 |                                                 |
| \\      /  F ield         | OpenFOAM: The Open Source CFD Toolbox           |
|  \\    /   O peration     | Version:  2.1.1                                 |
|   \\  /    A nd           | Web:      www.OpenFOAM.org                      |
|    \\/     M anipulation  |                                                 |
\*---------------------------------------------------------------------------*/
FoamFile
{
    version     2.0;
    format      ascii;
    class       dictionary;
    location    "system";
    object      fvSolution;
}
// * * * * * * * * * * * * * * * * * * * * * * * * * * * * * * * * * * * * * //

solvers
{
    p_rgh
    {
        solver          PCG;
        tolerance       1e-8;
        relTol          0.01;
        preconditioner
        {
	    preconditioner	GAMG;
	    smoother		GaussSeidel;
	    nPreSweeps		1;
	    nPostSweeps		1;
	    agglomerator	faceAreaPair;
	    mergeLevels		1;
	    nCellsInCoarsestLevel	100;
	    cacheAgglomeration	true;
	    tolerance	1e-5;
	    relTol	0.1;
        }
    }

    p_rghFinal
    {
        $p_rgh;
        relTol          0;
    }
    
    cellMotionU
    {
	$p_rghFinal;
	relTol		0.0;
    }
    
    cellMotionU
    {
	$cellMotionU;
    }

    "(rho|U|T|k|epsilon|R|SA)"
    {
        solver          PBiCG;
        preconditioner  DILU;
        tolerance       1e-7;
        relTol          0;
        maxIter		20;
        nLimiterIter	3;
        maxUnboundedness 1.0e-7;
        CoCoeff		2;
    }

    "(rho|U|T|k|epsilon|R|SA)Final"
    {
        $U;
        relTol          0;
    }
}

PIMPLE
{
    momentumPredictor yes;
    nOuterCorrectors 1;
    nCorrectors     2;
    nNonOrthogonalCorrectors 1;
    pRefCell        0;
    pRefValue       0;
    ddtPhiCorr		false;
}

relaxationFactors
{
}

// ************************************************************************* //
